LAMMPS (18 Sep 2018)
#WORKLOC=$PWD
#for j in `seq 4.6 0.1 5.6`
#do
#mkdir $WORKLOC/$j
#cd $WORKLOC/$j
#cat << EOF >> $WORKLOC/$j/Ar.in

#LAMMPS input script for Lattice parameter of solid Ar
#variable	lp universe 4.6 4.8
units       	metal
variable    	T equal 25
variable	dt equal 0.001
variable	lp equal 5.6
variable 	E equal etotal

# setup problem

dimension    	3
boundary     	p p p
atom_style	atomic
lattice      	fcc 5.6 orient x 1 0 0 orient y 0 1 0 orient z 0 0 1
Lattice spacing in x,y,z = 5.6 5.6 5.6
region       	box block 0 5 0 5 0 5
create_box   	1 box
Created orthogonal box = (0 0 0) to (28 28 28)
create_atoms 	1 box
Created 500 atoms
  Time spent = 0.000264168 secs
mass      	1 50
pair_style   	lj/smooth 8.0 9.0
pair_coeff   	* * 0.016 3.5
timestep     	0.001
dump            1 all atom 5000 config.dump

# equilibration and thermalization

variable	2T equal 2*$T
variable	2T equal 2*25
velocity     	all create 50 23426753 mom yes rot yes dist gaussian
#fix             pressure all press/berendsen iso 0.0 0.0 10
fix             NVT all nvt temp $T $T 0.1
fix             NVT all nvt temp 25 $T 0.1
fix             NVT all nvt temp 25 25 0.1
variable	lat_param equal (lx+ly+lz)/12

fix pe_atom all ave/time 1000 10 10000 v_lat_param v_E file pe.dat ave running

thermo_style    custom step temp press vol ke pe etotal
thermo		2000
run          	100000
  update every 1 steps, delay 10 steps, check yes
Step Temp Press Volume KinEng PotEng TotEng
0           50   -2376.4461        21952    3.2250406   -63.185553   -59.960512
Averages over the last 26 of 51 rows, steps 50000 to 100000:
Temp Press Volume KinEng PotEng TotEng
24.993 -1805.88 21952 1.61207 -61.2948 -59.6827
Loop time of 59.9809 on 1 procs for 100000 steps with 500 atoms

#EOF
#lmp_daily < $WORKLOC/$j/Ar.in > $WORKLOC/$j/Ar.out
#cd $WORKLOC
#done
